<?xml version="1.0" encoding="UTF-8"?>

<!-- generated on 2021-12-14 17:24:11 by Eclipse SUMO netedit Version 1.9.2
<configuration xmlns:xsi="http://www.w3.org/2001/XMLSchema-instance" xsi:noNamespaceSchemaLocation="http://sumo.dlr.de/xsd/netconvertConfiguration.xsd">

    <input>
        <sumo-net-file value="merge.net.xml"/>
    </input>

    <output>
        <output-file value="merge.net.xml"/>
    </output>

    <processing>
        <geometry.min-radius.fix.railways value="false"/>
        <geometry.max-grade.fix value="false"/>
        <offset.disable-normalization value="true"/>
        <lefthand value="false"/>
    </processing>

    <junctions>
        <no-turnarounds value="true"/>
        <junctions.corner-detail value="5"/>
        <junctions.limit-turn-speed value="5.5"/>
        <rectangular-lane-cut value="false"/>
    </junctions>

    <pedestrian>
        <walkingareas value="false"/>
    </pedestrian>

    <netedit>
        <route-files value="merge_demand.rou.xml"/>
    </netedit>

    <report>
        <aggregate-warnings value="5"/>
    </report>

</configuration>
-->

<routes xmlns:xsi="http://www.w3.org/2001/XMLSchema-instance" xsi:noNamespaceSchemaLocation="http://sumo.dlr.de/xsd/routes_file.xsd">
    <vType id="car1" length="5.2" accel="4" decel="0.5" sigma="1" emergencyDecel="0.5"
           minGap="0.0" collisionMinGapFactor="0" speedFactor="normc(1,0.5,0.7,1.3)" probability="0.4" jmIgnoreFoeProb="1"/>
    <vType id="car2" length="5.2" accel="5" decel="0.5" sigma="1" emergencyDecel="0.5"
           minGap="0.0" collisionMinGapFactor="0" speedFactor="normc(1,0.3,0.7,1.4)" probability="0.3" jmIgnoreFoeProb="1"/>
    <vType id="car3" length="5" accel="5" decel="0.5" sigma="1" emergencyDecel="0.5"
           minGap="0.0" collisionMinGapFactor="0" speedFactor="normc(1,0.2,0.7,1.1)" probability="0.3" jmIgnoreFoeProb="1"/>
    <vType id="ego" length="5" accel="50" decel="60" sigma="1"/>

    <vTypeDistribution id="typedist1" vTypes="car1 car2 car3"/>
    <flow id="flow_0" type="typedist1" begin="0.00" departLane="random" departSpeed="random" color="236,104,51" from="gneE9" to="gneE10" end="1400.00" number="10"/>
    <flow id="flow_1" type="typedist1" begin="0.00" departLane="0" departSpeed="random" color="236,104,51" from="gneE9" to="gneE10" end="10000.00" probability="0.5"/>
<!--    <flow id="flow_2" type="typedist1" begin="1.00" departLane="random" departSpeed="random" color="236,104,51" from="gneE9" to="gneE10" end="1400.00" period="1"/>-->

    <flow id="ego" begin="10.00" color="0,28,255" from="gneE11" to="gneE10" departPos="random" departSpeed="0.00" end="12.00" number="1"/>

</routes>
