<?xml version="1.0" encoding="UTF-8"?>

<!-- generated on 2021-12-14 17:48:02 by Eclipse SUMO netedit Version 1.9.2
<configuration xmlns:xsi="http://www.w3.org/2001/XMLSchema-instance" xsi:noNamespaceSchemaLocation="http://sumo.dlr.de/xsd/netconvertConfiguration.xsd">

    <input>
        <sumo-net-file value="merge.net.xml"/>
    </input>

    <output>
        <output-file value="merge.net.xml"/>
    </output>

    <processing>
        <geometry.min-radius.fix.railways value="false"/>
        <geometry.max-grade.fix value="false"/>
        <offset.disable-normalization value="true"/>
        <lefthand value="false"/>
    </processing>

    <junctions>
        <no-turnarounds value="true"/>
        <junctions.corner-detail value="5"/>
        <junctions.limit-turn-speed value="5.5"/>
        <rectangular-lane-cut value="false"/>
    </junctions>

    <pedestrian>
        <walkingareas value="false"/>
    </pedestrian>

    <report>
        <aggregate-warnings value="5"/>
    </report>

</configuration>
-->

<net version="1.9" junctionCornerDetail="5" limitTurnSpeed="5.50" xmlns:xsi="http://www.w3.org/2001/XMLSchema-instance" xsi:noNamespaceSchemaLocation="http://sumo.dlr.de/xsd/net_file.xsd">

    <location netOffset="0.00,0.00" convBoundary="-100.00,-30.00,300.00,0.00" origBoundary="-10000000000.00,-10000000000.00,10000000000.00,10000000000.00" projParameter="!"/>

    <edge id=":gneJ15_0" function="internal">
        <lane id=":gneJ15_0_0" index="0" speed="35.00" length="24.57" shape="127.42,-5.00 132.60,-4.16 139.56,-3.02 146.52,-2.03 151.74,-1.60"/>
    </edge>
    <edge id=":gneJ15_1" function="internal">
        <lane id=":gneJ15_1_0" index="0" speed="35.00" length="24.57" shape="127.17,-1.60 151.74,-1.60"/>
    </edge>

    <edge id="gneE10" from="gneJ15" to="gneJ16" priority="1">
        <lane id="gneE10_0" index="0" speed="35.00" length="148.26" shape="151.74,-1.60 300.00,-1.60"/>
    </edge>
    <edge id="gneE11" from="gneJ17" to="gneJ15" priority="-1">
        <lane id="gneE11_0" index="0" speed="35.00" length="179.17" shape="-49.76,-31.58 127.42,-5.00"/>
    </edge>
    <edge id="gneE9" from="gneJ14" to="gneJ15" priority="2">
        <lane id="gneE9_0" index="0" speed="35.00" length="227.17" shape="-100.00,-1.60 127.17,-1.60"/>
    </edge>

    <junction id="gneJ14" type="dead_end" x="-100.00" y="0.00" incLanes="" intLanes="" shape="-100.00,0.00 -100.00,-3.20"/>
    <junction id="gneJ15" type="priority" x="150.00" y="0.00" incLanes="gneE11_0 gneE9_0" intLanes=":gneJ15_0_0 :gneJ15_1_0" shape="151.74,0.00 151.74,-3.20 146.57,-3.33 142.76,-3.68 139.65,-4.22 136.54,-4.91 132.77,-5.71 127.66,-6.59 127.18,-3.42 127.17,-3.20 127.17,0.00" rightOfWay="edgePriority">
        <request index="0" response="10" foes="10" cont="0"/>
        <request index="1" response="00" foes="01" cont="0"/>
    </junction>
    <junction id="gneJ16" type="dead_end" x="300.00" y="0.00" incLanes="gneE10_0" intLanes="" shape="300.00,-3.20 300.00,0.00"/>
    <junction id="gneJ17" type="dead_end" x="-50.00" y="-30.00" incLanes="" intLanes="" shape="-50.00,-30.00 -49.53,-33.16"/>

    <connection from="gneE11" to="gneE10" fromLane="0" toLane="0" keepClear="0" via=":gneJ15_0_0" dir="s" state="m"/>
    <connection from="gneE9" to="gneE10" fromLane="0" toLane="0" keepClear="0" via=":gneJ15_1_0" dir="s" state="M"/>

    <connection from=":gneJ15_0" to="gneE10" fromLane="0" toLane="0" dir="s" state="M"/>
    <connection from=":gneJ15_1" to="gneE10" fromLane="0" toLane="0" dir="s" state="M"/>

</net>
